*SPEF "1481-1998"
*DESIGN "mux8x1_8bit"
*DATE "Mon Jun  2 17:51:16 2025"
*VENDOR "Synopsys, Inc."
*PROGRAM "icc2 /home/synopsys_install/icc2/W-2024.09/linux64/nwtn/bin/icc2_exec"
*VERSION "W-2024.09 Aug 25, 2024"
*DESIGN_FLOW "ICC2 SPEF DR"
*DIVIDER /
*DELIMITER :
*BUS_DELIMITER [ ]
*T_UNIT 1 NS
*C_UNIT 1 FF
*R_UNIT 1 OHM
*L_UNIT 1 HENRY

// XY_UNIT 1 UM
// PARASITIC_TECH p1 at 125.000 degree

*NAME_MAP
*1 I0[7]
*2 I0[6]
*3 I0[5]
*4 I0[4]
*5 I0[3]
*6 I0[2]
*7 I0[1]
*8 I0[0]
*9 I1[7]
*10 I1[6]
*11 I1[5]
*12 I1[4]
*13 I1[3]
*14 I1[2]
*15 I1[1]
*16 I1[0]
*17 I2[7]
*18 I2[6]
*19 I2[5]
*20 I2[4]
*21 I2[3]
*22 I2[2]
*23 I2[1]
*24 I2[0]
*25 I3[7]
*26 I3[6]
*27 I3[5]
*28 I3[4]
*29 I3[3]
*30 I3[2]
*31 I3[1]
*32 I3[0]
*33 I4[7]
*34 I4[6]
*35 I4[5]
*36 I4[4]
*37 I4[3]
*38 I4[2]
*39 I4[1]
*40 I4[0]
*41 I5[7]
*42 I5[6]
*43 I5[5]
*44 I5[4]
*45 I5[3]
*46 I5[2]
*47 I5[1]
*48 I5[0]
*49 I6[7]
*50 I6[6]
*51 I6[5]
*52 I6[4]
*53 I6[3]
*54 I6[2]
*55 I6[1]
*56 I6[0]
*57 I7[7]
*58 I7[6]
*59 I7[5]
*60 I7[4]
*61 I7[3]
*62 I7[2]
*63 I7[1]
*64 I7[0]
*65 Sel[2]
*66 Sel[1]
*67 Sel[0]
*68 Clock
*69 y[7]
*70 y[6]
*71 y[5]
*72 y[4]
*73 y[3]
*74 y[2]
*75 y[1]
*76 y[0]
*77 VDD
*78 VSS
*79 y_reg[7]
*80 y_reg[6]
*81 y_reg[5]
*82 y_reg[4]
*83 y_reg[3]
*84 y_reg[2]
*85 y_reg[1]
*86 y_reg[0]
*87 HFSINV_65_0
*88 HFSINV_46_1
*89 ctosc_drc_inst_342
*90 ctosc_drc_inst_433
*91 U123
*92 U124
*93 U125
*94 U126
*95 U127
*96 U128
*97 U129
*98 U130
*99 U131
*100 U132
*101 U133
*102 U134
*103 U135
*104 U136
*105 U137
*106 U138
*107 U139
*108 U140
*109 U141
*110 U142
*111 U143
*112 U144
*113 U145
*114 U146
*115 U147
*116 U148
*117 U149
*118 U150
*119 U151
*120 U152
*121 U153
*122 U154
*123 U155
*124 U156
*125 U157
*126 U158
*127 U159
*128 U160
*129 U161
*130 U162
*131 U163
*132 U164
*133 U165
*134 U166
*135 U167
*136 U168
*137 U169
*138 U170
*139 U171
*140 U172
*141 U173
*142 U174
*143 U175
*144 U176
*145 U177
*146 U178
*147 U179
*148 U180
*149 U181
*150 U182
*151 U183
*152 U184
*153 U185
*154 U186
*155 U187
*156 U188
*157 U189
*158 U190
*159 U191
*160 U192
*161 U193
*162 U194
*163 U195
*164 U196
*165 U197
*166 U198
*167 U199
*168 U200
*169 U201
*170 U202
*171 U203
*172 U204
*173 U205
*174 U206
*175 U207
*176 U208
*177 U209
*178 U210
*179 U211
*180 U212
*181 U213
*182 U214
*183 U215
*184 U216
*185 U217
*186 U218
*187 U219
*188 U220
*189 U221
*190 U222
*191 U223
*192 U224
*193 U225
*194 U226
*195 U227
*196 U228
*197 U229
*198 U230
*199 HFSNET_0
*200 HFSNET_1
*201 ctosc_drc_0
*202 ctosc_drc_1
*203 n113
*204 n114
*205 n115
*206 n116
*207 n117
*208 n118
*209 n119
*210 n120
*211 n121
*212 n122
*213 n123
*214 n124
*215 n125
*216 n126
*217 n127
*218 n128
*219 n129
*220 n130
*221 n131
*222 n132
*223 n133
*224 n134
*225 n135
*226 n136
*227 n137
*228 n138
*229 n139
*230 n140
*231 n141
*232 n142
*233 n143
*234 n144
*235 n145
*236 n146
*237 n147
*238 n148
*239 n149
*240 n150
*241 n151
*242 n152
*243 n153
*244 n154
*245 n155
*246 n156
*247 n157
*248 n158
*249 n159
*250 n160
*251 n161
*252 n162
*253 n163
*254 n164
*255 n165
*256 n166
*257 n167
*258 n168
*259 n169
*260 n170
*261 n171
*262 n172
*263 n173
*264 n174
*265 n175
*266 n176
*267 n177
*268 n178
*269 n179
*270 n180
*271 n181
*272 n182
*273 n183
*274 n184
*275 n185
*276 n186
*277 n187
*278 n188
*279 n189
*280 n190
*281 n191
*282 n192
*283 n193
*284 n194
*285 n195
*286 n196
*287 n197
*288 n198
*289 n199
*290 n200
*291 n201
*292 n202
*293 n203
*294 n204
*295 n205
*296 n206
*297 n207
*298 n208
*299 n209
*300 n210
*301 n211
*302 n212
*303 mux_out[7]
*304 mux_out[6]
*305 mux_out[5]
*306 mux_out[4]
*307 mux_out[3]
*308 mux_out[2]
*309 mux_out[1]
*310 mux_out[0]

*PORTS

*1 I *C 15.072 0.143
*2 I *C 23.280 0.143
*3 I *C 22.976 0.143
*4 I *C 22.064 0.143
*5 I *C 21.000 0.143
*6 I *C 19.936 0.143
*7 I *C 21.304 0.143
*8 I *C 19.632 0.143
*9 I *C 18.264 0.143
*10 I *C 17.960 0.143
*11 I *C 17.048 0.143
*12 I *C 14.616 0.143
*13 I *C 11.880 0.143
*14 I *C 10.512 0.143
*15 I *C 17.352 0.143
*16 I *C 17.656 0.143
*17 I *C 13.248 0.143
*18 I *C 8.080 0.143
*19 I *C 9.296 0.143
*20 I *C 8.688 0.143
*21 I *C 7.472 0.143
*22 I *C 7.168 0.143
*23 I *C 28.177 10.816
*24 I *C 28.177 10.208
*25 I *C 28.177 11.424
*26 I *C 28.177 8.688
*27 I *C 28.177 7.776
*28 I *C 28.177 6.560
*29 I *C 28.177 4.432
*30 I *C 25.256 0.143
*31 I *C 28.177 7.168
*32 I *C 28.177 5.040
*33 I *C 25.104 15.561
*34 I *C 24.192 15.561
*35 I *C 22.064 15.561
*36 I *C 21.760 15.561
*37 I *C 19.784 15.561
*38 I *C 18.264 15.561
*39 I *C 17.656 15.561
*40 I *C 17.352 15.561
*41 I *C 16.017 22.672
*42 I *C 16.017 22.064
*43 I *C 16.017 21.152
*44 I *C 16.017 17.808
*45 I *C 16.017 20.544
*46 I *C 17.048 15.561
*47 I *C 6.560 27.265
*48 I *C 8.232 27.265
*49 I *C 10.816 27.265
*50 I *C 10.512 27.265
*51 I *C 9.144 27.265
*52 I *C 8.536 27.265
*53 I *C 7.168 27.265
*54 I *C 5.800 27.265
*55 I *C 4.584 27.265
*56 I *C 4.128 27.265
*57 I *C 0.143 24.496
*58 I *C 0.143 22.672
*59 I *C 0.143 22.064
*60 I *C 0.143 18.720
*61 I *C 0.143 19.936
*62 I *C 0.143 18.112
*63 I *C 0.143 21.456
*64 I *C 0.143 19.328
*65 I *C 0.143 12.032
*66 I *C 0.143 15.072
*67 I *C 0.143 17.200
*68 I *C 0.143 14.464
*69 O *C 0.143 13.856
*70 O *C 0.143 11.424
*71 O *C 0.143 8.688
*72 O *C 0.143 10.512
*73 O *C 8.992 0.143
*74 O *C 7.776 0.143
*75 O *C 5.648 0.143
*76 O *C 5.952 0.143
*77 I *C 14.160 13.704
*78 I *C 14.160 13.704

*D_NET *1 0.7201427 //LENGTH 8.925 LUMPCC 0 DR

*CONN
*P *1 I *L 0 *C 15.072 0.258
*I *186:A2 I *L 0.557409 *C 17.504 6.256
*N *1:2 *C 17.504 6.243
*N *1:3 *C 17.504 5.966
*N *1:4 *C 17.491 5.952
*N *1:5 *C 15.998 5.952
*N *1:6 *C 15.984 5.939
*N *1:7 *C 15.984 2.014
*N *1:8 *C 15.971 2.000
*N *1:9 *C 15.086 2.000
*N *1:10 *C 15.072 1.987

*CAP
0 *1 0.07288393
1 *186:A2 0.001
2 *1:2 0.02066879
3 *1:3 0.02210147
4 *1:4 0.07216153
5 *1:5 0.07216208
6 *1:6 0.1597564
7 *1:7 0.1597564
8 *1:8 0.03457047
9 *1:9 0.03456992
10 *1:10 0.07051171

*RES
0 *1 *1:10 3.086607
1 *1:2 *186:A2 1
2 *1:3 *1:2 0.4946429
3 *1:4 *1:3 0.5
4 *1:5 *1:4 2.666071
5 *1:6 *1:5 0.5
6 *1:8 *1:7 0.5
7 *1:7 *1:6 7.008929
8 *1:10 *1:9 0.5
9 *1:9 *1:8 1.580357

*END

*D_NET *2 0.4570055 //LENGTH 5.189 LUMPCC 0 DR

*CONN
*P *2 I *L 0 *C 23.280 0.258
*I *173:A2 I *L 0.557409 *C 23.888 4.432
*N *2:2 *C 23.888 4.250
*N *2:3 *C 23.888 4.420
*N *2:4 *C 23.875 4.432
*N *2:5 *C 23.294 4.432
*N *2:6 *C 23.280 4.418

*CAP
0 *2 0.1864824
1 *173:A2 0.001
2 *2:2 0.01641559
3 *2:3 0.01023847
4 *2:4 0.02937943
5 *2:5 0.02937943
6 *2:6 0.1841102

*RES
0 *2 *2:6 7.429465
1 *2:3 *173:A2 1
2 *2:3 *2:2 0.2825
3 *2:4 *2:3 0.5
4 *2:6 *2:5 0.5
5 *2:5 *2:4 1.0375

*END

*D_NET *3 0.2786916 //LENGTH 3.689 LUMPCC 0 DR

*CONN
*P *3 I *L 0 *C 22.976 0.258
*I *160:A2 I *L 0.557409 *C 23.736 2.912
*N *3:2 *C 23.736 2.899
*N *3:3 *C 23.736 2.014
*N *3:4 *C 23.723 2.000
*N *3:5 *C 22.989 2.000
*N *3:6 *C 22.976 1.987

*CAP
0 *3 0.0590675
1 *160:A2 0.001
2 *3:2 0.05016623
3 *3:3 0.05159891
4 *3:4 0.03008132
5 *3:5 0.03008186
6 *3:6 0.05669582

*RES
0 *3 *3:6 3.086607
1 *3:2 *160:A2 1
2 *3:3 *3:2 1.580357
3 *3:4 *3:3 0.5
4 *3:5 *3:4 1.308929
5 *3:6 *3:5 0.5

*END

*D_NET *4 0.4074659 //LENGTH 4.808 LUMPCC 0 DR

*CONN
*P *4 I *L 0 *C 22.064 0.258
*I *147:A2 I *L 0.557409 *C 20.240 2.940
*N *4:2 *C 20.380 2.912
*N *4:3 *C 20.392 2.899
*N *4:4 *C 20.392 2.317
*N *4:5 *C 20.405 2.304
*N *4:6 *C 22.050 2.304
*N *4:7 *C 22.064 2.291

*CAP
0 *4 0.08069269
1 *147:A2 0.01742294
2 *4:2 0.01534754
3 *4:3 0.0305395
4 *4:4 0.03024268
5 *4:5 0.07745008
6 *4:6 0.07745008
7 *4:7 0.07832047

*RES
0 *4 *4:7 3.629464
1 *4:2 *147:A2 0.2325
2 *4:3 *4:2 1
3 *4:4 *4:3 1.0375
4 *4:5 *4:4 0.5
5 *4:7 *4:6 0.5
6 *4:6 *4:5 2.9375

*END

*D_NET *5 0.4618142 //LENGTH 5.264 LUMPCC 0 DR

*CONN
*P *5 I *L 0 *C 21.000 0.258
*I *134:A2 I *L 0.557409 *C 18.720 2.940
*N *5:2 *C 18.860 2.912
*N *5:3 *C 18.872 2.899
*N *5:4 *C 18.872 2.014
*N *5:5 *C 18.886 2.000
*N *5:6 *C 20.986 2.000
*N *5:7 *C 21.000 1.987

*CAP
0 *5 0.08129655
1 *134:A2 0.01608341
2 *5:2 0.01400801
3 *5:3 0.04493102
4 *5:4 0.0446342
5 *5:5 0.09096834
6 *5:6 0.09096834
7 *5:7 0.07892434

*RES
0 *5 *5:7 3.086607
1 *5:2 *134:A2 0.2325
2 *5:3 *5:2 1
3 *5:4 *5:3 1.580357
4 *5:5 *5:4 0.5
5 *5:7 *5:6 0.5
6 *5:6 *5:5 3.751786

*END

*D_NET *6 0.5159308 //LENGTH 5.568 LUMPCC 0 DR

*CONN
*P *6 I *L 0 *C 19.936 0.258
*I *121:A2 I *L 0.557409 *C 17.352 2.940
*N *6:2 *C 17.492 2.912
*N *6:3 *C 17.504 2.899
*N *6:4 *C 17.504 2.317
*N *6:5 *C 17.518 2.304
*N *6:6 *C 19.922 2.304
*N *6:7 *C 19.936 2.291

*CAP
0 *6 0.08599655
1 *121:A2 0.01820162
2 *6:2 0.01612622
3 *6:3 0.04157504
4 *6:4 0.04127822
5 *6:5 0.1145644
6 *6:6 0.1145644
7 *6:7 0.08362433

*RES
0 *6 *6:7 3.629464
1 *6:2 *121:A2 0.2325
2 *6:3 *6:2 1
3 *6:4 *6:3 1.0375
4 *6:5 *6:4 0.5
5 *6:7 *6:6 0.5
6 *6:6 *6:5 4.294643

*END

*D_NET *7 1.111586 //LENGTH 11.181 LUMPCC 0 DR

*CONN
*P *7 I *L 0 *C 21.304 0.258
*I *109:A2 I *L 0.557409 *C 21.152 11.120
*N *7:2 *C 21.152 11.107
*N *7:3 *C 21.152 10.512
*N *7:4 *C 21.304 10.512

*CAP
0 *7 0.510989
1 *109:A2 0.001
2 *7:2 0.03412234
3 *7:3 0.0462064
4 *7:4 0.5192682

*RES
0 *7 *7:4 18.31072
1 *7:2 *109:A2 1
2 *7:3 *7:2 1.061607
3 *7:4 *7:3 0.2714286

*END

*D_NET *8 0.4559333 //LENGTH 5.264 LUMPCC 0 DR

*CONN
*P *8 I *L 0 *C 19.632 0.258
*I *94:A2 I *L 0.557409 *C 21.304 2.940
*N *8:2 *C 21.165 2.912
*N *8:3 *C 21.152 2.925
*N *8:4 *C 21.152 3.203
*N *8:5 *C 21.139 3.216
*N *8:6 *C 19.646 3.216
*N *8:7 *C 19.632 3.203

*CAP
0 *8 0.1093667
1 *94:A2 0.01634829
2 *8:2 0.0142729
3 *8:3 0.02814711
4 *8:4 0.02785029
5 *8:5 0.0764762
6 *8:6 0.07647675
7 *8:7 0.1069951

*RES
0 *8 *8:7 5.258036
1 *8:2 *94:A2 0.2325
2 *8:3 *8:2 1
3 *8:4 *8:3 0.4946429
4 *8:5 *8:4 0.5
5 *8:6 *8:5 2.666071
6 *8:7 *8:6 0.5

*END

*D_NET *9 1.006112 //LENGTH 9.902 LUMPCC 0 DR

*CONN
*P *9 I *L 0 *C 18.264 0.272
*I *188:A2 I *L 0.557409 *C 16.136 7.801
*N *9:2 *C 16.136 7.624
*N *9:3 *C 16.136 7.612
*N *9:4 *C 16.136 7.472
*N *9:5 *C 16.149 7.472
*N *9:6 *C 18.251 7.472
*N *9:7 *C 18.264 7.459

*CAP
0 *9 0.3714065
1 *188:A2 0.009968244
2 *9:2 0.01573435
3 *9:3 0.01166791
4 *9:4 0.01137109
5 *9:5 0.1084648
6 *9:6 0.1084648
7 *9:7 0.3690342

*RES
0 *9 *9:7 12.83304
1 *9:2 *188:A2 0.224
2 *9:3 *9:2 1
3 *9:4 *9:3 0.2325
4 *9:5 *9:4 0.5
5 *9:7 *9:6 0.5
6 *9:6 *9:5 3.751786

*END

*D_NET *10 0.7369649 //LENGTH 6.405 LUMPCC 0 DR

*CONN
*P *10 I *L 0 *C 17.960 0.258
*I *175:A2 I *L 0.557409 *C 19.784 4.432
*N *10:2 *C 19.784 4.250
*N *10:3 *C 19.784 4.420
*N *10:4 *C 19.771 4.432
*N *10:5 *C 17.974 4.432
*N *10:6 *C 17.960 4.418

*CAP
0 *10 0.2722686
1 *175:A2 0.001
2 *10:2 0.01664604
3 *10:3 0.01046893
4 *10:4 0.08334249
5 *10:5 0.08334249
6 *10:6 0.2698964

*RES
0 *10 *10:6 7.429465
1 *10:3 *175:A2 1
2 *10:3 *10:2 0.2825
3 *10:4 *10:3 0.5
4 *10:6 *10:5 0.5
5 *10:5 *10:4 3.208929

*END

*D_NET *11 0.6583853 //LENGTH 5.582 LUMPCC 0 DR

*CONN
*P *11 I *L 0 *C 17.048 0.258
*I *162:A2 I *L 0.557409 *C 18.234 4.457
*N *11:2 *C 17.215 4.432
*N *11:3 *C 17.200 4.418
*N *11:4 *C 17.200 3.520
*N *11:5 *C 17.048 3.520

*CAP
0 *11 0.1776069
1 *162:A2 0.078222
2 *11:2 0.0761466
3 *11:3 0.06438891
4 *11:4 0.07543921
5 *11:5 0.1865818

*RES
0 *11 *11:5 5.825
1 *11:2 *162:A2 2.038
2 *11:3 *11:2 1
3 *11:5 *11:4 0.2714286
4 *11:4 *11:3 1.604464

*END

*D_NET *12 0.3078001 //LENGTH 3.342 LUMPCC 0 DR

*CONN
*P *12 I *L 0 *C 14.616 0.258
*I *149:A2 I *L 0.557409 *C 15.194 2.937
*N *12:2 *C 14.631 2.912
*N *12:3 *C 14.616 2.899

*CAP
0 *12 0.1146976
1 *149:A2 0.04127785
2 *12:2 0.03920245
3 *12:3 0.1126222

*RES
0 *12 *12:3 4.715178
1 *12:2 *149:A2 1.126
2 *12:3 *12:2 1

*END

*D_NET *13 0.3819506 //LENGTH 4.204 LUMPCC 0 DR

*CONN
*P *13 I *L 0 *C 11.880 0.258
*I *136:A2 I *L 0.557409 *C 13.370 2.937
*N *13:2 *C 11.880 2.912
*N *13:3 *C 11.880 2.911

*CAP
0 *13 0.1005583
1 *136:A2 0.08842985
2 *13:2 0.09447965
3 *13:3 0.09848287

*RES
0 *13 *13:3 4.7375
1 *13:2 *136:A2 2.98
2 *13:3 *13:2 1

*END

*D_NET *14 0.268893 //LENGTH 2.973 LUMPCC 0 DR

*CONN
*P *14 I *L 0 *C 10.512 0.258
*I *123:A2 I *L 0.557409 *C 10.360 2.912
*N *14:2 *C 10.360 2.899
*N *14:3 *C 10.360 2.000
*N *14:4 *C 10.512 2.000

*CAP
0 *14 0.06987
1 *123:A2 0.001
2 *14:2 0.05416143
3 *14:3 0.06597897
4 *14:4 0.07788264

*RES
0 *14 *14:4 3.110714
1 *14:2 *123:A2 1
2 *14:3 *14:2 1.604464
3 *14:4 *14:3 0.2714286

*END

*D_NET *15 1.115369 //LENGTH 8.959 LUMPCC 0 DR

*CONN
*P *15 I *L 0 *C 17.352 0.272
*I *111:A2 I *L 0.557409 *C 17.641 7.801
*N *15:2 *C 17.367 7.776
*N *15:3 *C 17.352 7.763
*N *15:4 *C 17.352 5.952
*N *15:5 *C 17.200 5.952
*N *15:6 *C 17.200 5.192
*N *15:7 *C 17.352 5.192
*N *15:8 *C 17.352 2.456
*N *15:9 *C 17.200 2.456
*N *15:10 *C 17.200 1.848
*N *15:11 *C 17.352 1.848

*CAP
0 *15 0.08435144
1 *111:A2 0.02516833
2 *15:2 0.02309293
3 *15:3 0.1108101
4 *15:4 0.1219071
5 *15:5 0.05330807
6 *15:6 0.05513499
7 *15:7 0.215982
8 *15:8 0.2137829
9 *15:9 0.05818458
10 *15:10 0.05941494
11 *15:11 0.09423122

*RES
0 *15 *15:11 2.814286
1 *15:2 *111:A2 0.5480001
2 *15:3 *15:2 1
3 *15:10 *15:9 1.085714
4 *15:9 *15:8 0.2714286
5 *15:11 *15:10 0.2714286
6 *15:8 *15:7 4.885715
7 *15:6 *15:5 1.357143
8 *15:5 *15:4 0.2714286
9 *15:7 *15:6 0.2714286
10 *15:4 *15:3 3.233036

*END

*D_NET *16 0.9487585 //LENGTH 8.234 LUMPCC 0 DR

*CONN
*P *16 I *L 0 *C 17.656 0.258
*I *98:A2 I *L 0.557409 *C 21.274 4.457
*N *16:2 *C 21.015 4.432
*N *16:3 *C 21.000 4.418
*N *16:4 *C 21.000 3.534
*N *16:5 *C 20.986 3.520
*N *16:6 *C 17.822 3.520
*N *16:7 *C 17.808 3.506
*N *16:8 *C 17.808 0.480
*N *16:9 *C 17.656 0.480

*CAP
0 *16 0.01738455
1 *98:A2 0.0243474
2 *16:2 0.022272
3 *16:3 0.04901275
4 *16:4 0.04871593
5 *16:5 0.1741266
6 *16:6 0.1741266
7 *16:7 0.2025537
8 *16:8 0.2118802
9 *16:9 0.02433881

*RES
0 *16 *16:9 0.3964286
1 *16:2 *98:A2 0.5180001
2 *16:3 *16:2 1
3 *16:4 *16:3 1.580357
4 *16:5 *16:4 0.5
5 *16:7 *16:6 0.5
6 *16:6 *16:5 5.651786
7 *16:9 *16:8 0.2714286
8 *16:8 *16:7 5.404465

*END

*D_NET *17 0.6553162 //LENGTH 8.456 LUMPCC 0 DR

*CONN
*P *17 I *L 0 *C 13.248 0.258
*I *187:A2 I *L 0.557409 *C 15.376 6.284
*N *17:2 *C 15.237 6.256
*N *17:3 *C 15.224 6.243
*N *17:4 *C 15.224 5.054
*N *17:5 *C 15.211 5.040
*N *17:6 *C 13.261 5.040
*N *17:7 *C 13.248 5.027

*CAP
0 *17 0.1740466
1 *187:A2 0.01764683
2 *17:2 0.01557143
3 *17:3 0.06040679
4 *17:4 0.06010997
5 *17:5 0.07792949
6 *17:6 0.07793003
7 *17:7 0.171675

*RES
0 *17 *17:7 8.515179
1 *17:2 *187:A2 0.2325
2 *17:3 *17:2 1
3 *17:4 *17:3 2.123214
4 *17:5 *17:4 0.5
5 *17:6 *17:5 3.480357
6 *17:7 *17:6 0.5

*END

*D_NET *18 0.6363874 //LENGTH 8.558 LUMPCC 0 DR

*CONN
*P *18 I *L 0 *C 8.080 0.258
*I *174:A2 I *L 0.557409 *C 10.178 6.281
*N *18:2 *C 9.904 6.074
*N *18:3 *C 9.919 6.256
*N *18:4 *C 9.904 6.244
*N *18:5 *C 9.891 6.256
*N *18:6 *C 8.094 6.256
*N *18:7 *C 8.080 6.243

*CAP
0 *18 0.2049318
1 *174:A2 0.0236255
2 *18:2 0.01375268
3 *18:3 0.0215501
4 *18:4 0.009305067
5 *18:5 0.08033076
6 *18:6 0.08033131
7 *18:7 0.2025601

*RES
0 *18 *18:7 10.68661
1 *18:3 *174:A2 0.5180001
2 *18:4 *18:3 1
3 *18:4 *18:2 0.2825
4 *18:5 *18:4 0.5
5 *18:6 *18:5 3.208929
6 *18:7 *18:6 0.5

*END

*D_NET *19 0.942218 //LENGTH 10.858 LUMPCC 0 DR

*CONN
*P *19 I *L 0 *C 9.296 0.258
*I *161:A2 I *L 0.557409 *C 13.826 6.281
*N *19:2 *C 13.263 6.256
*N *19:3 *C 13.248 6.243
*N *19:4 *C 13.248 5.662
*N *19:5 *C 13.235 5.648
*N *19:6 *C 9.309 5.648
*N *19:7 *C 9.296 5.635

*CAP
0 *19 0.2490907
1 *161:A2 0.0355975
2 *19:2 0.0335221
3 *19:3 0.03413289
4 *19:4 0.03383607
5 *19:5 0.1546601
6 *19:6 0.1546601
7 *19:7 0.2467185

*RES
0 *19 *19:7 9.600894
1 *19:2 *161:A2 1.126
2 *19:3 *19:2 1
3 *19:4 *19:3 1.0375
4 *19:5 *19:4 0.5
5 *19:7 *19:6 0.5
6 *19:6 *19:5 7.008929

*END

*D_NET *20 0.6812315 //LENGTH 6.071 LUMPCC 0 DR

*CONN
*P *20 I *L 0 *C 8.688 0.258
*I *148:A2 I *L 0.557409 *C 10.360 4.432
*N *20:2 *C 10.360 4.418
*N *20:3 *C 10.360 3.217
*N *20:4 *C 10.359 3.216
*N *20:5 *C 8.702 3.216
*N *20:6 *C 8.688 3.203

*CAP
0 *20 0.2016331
1 *148:A2 0.001
2 *20:2 0.06373337
3 *20:3 0.06516605
4 *20:4 0.07521904
5 *20:5 0.07521904
6 *20:6 0.1992609

*RES
0 *20 *20:6 5.258035
1 *20:2 *148:A2 1
2 *20:3 *20:2 2.145536
3 *20:4 *20:3 0.5
4 *20:6 *20:5 0.5
5 *20:5 *20:4 2.959822

*END

*D_NET *21 0.432284 //LENGTH 4.200 LUMPCC 0 DR

*CONN
*P *21 I *L 0 *C 7.472 0.258
*I *135:A2 I *L 0.557409 *C 8.688 2.940
*N *21:2 *C 8.549 2.912
*N *21:3 *C 8.536 2.899
*N *21:4 *C 8.536 0.494
*N *21:5 *C 8.523 0.480
*N *21:6 *C 7.486 0.480
*N *21:7 *C 7.472 0.467

*CAP
0 *21 0.01570666
1 *135:A2 0.01604805
2 *21:2 0.01397265
3 *21:3 0.1488692
4 *21:4 0.1485723
5 *21:5 0.03789034
6 *21:6 0.03789034
7 *21:7 0.01333444

*RES
0 *21 *21:7 0.3723215
1 *21:2 *135:A2 0.2325
2 *21:3 *21:2 1
3 *21:4 *21:3 4.294643
4 *21:5 *21:4 0.5
5 *21:7 *21:6 0.5
6 *21:6 *21:5 1.851786

*END

*D_NET *22 0.2990665 //LENGTH 3.365 LUMPCC 0 DR

*CONN
*P *22 I *L 0 *C 7.168 0.258
*I *122:A2 I *L 0.557409 *C 6.864 2.912
*N *22:2 *C 6.864 2.730
*N *22:3 *C 6.864 2.900
*N *22:4 *C 6.878 2.912
*N *22:5 *C 7.155 2.912
*N *22:6 *C 7.168 2.899

*CAP
0 *22 0.1211979
1 *122:A2 0.001
2 *22:2 0.01476603
3 *22:3 0.008588915
4 *22:4 0.017344
5 *22:5 0.017344
6 *22:6 0.1188257

*RES
0 *22 *22:6 4.715178
1 *22:3 *122:A2 1
2 *22:3 *22:2 0.2825
3 *22:4 *22:3 0.5
4 *22:6 *22:5 0.5
5 *22:5 *22:4 0.4946429

*END

*D_NET *23 0.4038063 //LENGTH 5.099 LUMPCC 0 DR

*CONN
*P *23 I *L 0 *C 28.062 10.816
*I *110:A2 I *L 0.557409 *C 24.344 9.600
*N *23:2 *C 24.344 9.614
*N *23:3 *C 24.344 10.803
*N *23:4 *C 24.358 10.816

*CAP
0 *23 0.1462626
1 *110:A2 0.001
2 *23:2 0.05561028
3 *23:3 0.05704296
4 *23:4 0.1438904

*RES
0 *23 *23:4 6.61518
1 *23:2 *110:A2 1
2 *23:3 *23:2 2.123214
3 *23:4 *23:3 0.5

*END

*D_NET *24 0.5248526 //LENGTH 6.667 LUMPCC 0 DR

*CONN
*P *24 I *L 0 *C 28.062 10.208
*I *96:A2 I *L 0.557409 *C 24.344 7.776
*N *24:2 *C 24.344 7.594
*N *24:3 *C 24.344 7.764
*N *24:4 *C 24.358 7.776
*N *24:5 *C 25.242 7.776
*N *24:6 *C 25.256 7.790
*N *24:7 *C 25.256 10.194
*N *24:8 *C 25.270 10.208

*CAP
0 *24 0.105728
1 *96:A2 0.001
2 *24:2 0.01707971
3 *24:3 0.01090259
4 *24:4 0.03587577
5 *24:5 0.03587577
6 *24:6 0.1075175
7 *24:7 0.1075175
8 *24:8 0.1033558

*RES
0 *24 *24:8 4.986608
1 *24:3 *96:A2 1
2 *24:3 *24:2 0.2825
3 *24:4 *24:3 0.5
4 *24:6 *24:5 0.5
5 *24:5 *24:4 1.580357
6 *24:7 *24:6 4.294643
7 *24:8 *24:7 0.5

*END

*D_NET *25 0.3759451 //LENGTH 4.364 LUMPCC 0 DR

*CONN
*P *25 I *L 0 *C 28.062 11.424
*I *189:A2 I *L 0.557409 *C 24.222 11.145
*N *25:2 *C 24.937 11.120
*N *25:3 *C 24.952 11.133
*N *25:4 *C 24.952 11.411
*N *25:5 *C 24.966 11.424

*CAP
0 *25 0.117208
1 *189:A2 0.05720404
2 *25:2 0.05512864
3 *25:3 0.01593268
4 *25:4 0.01563586
5 *25:5 0.1148358

*RES
0 *25 *25:5 5.529465
1 *25:2 *189:A2 1.43
2 *25:3 *25:2 1
3 *25:4 *25:3 0.4946429
4 *25:5 *25:4 0.5

*END

*D_NET *26 0.2554887 //LENGTH 3.300 LUMPCC 0 DR

*CONN
*P *26 I *L 0 *C 28.062 8.688
*I *176:A2 I *L 0.557409 *C 25.894 9.625
*N *26:2 *C 26.305 9.600
*N *26:3 *C 26.320 9.587
*N *26:4 *C 26.320 8.702
*N *26:5 *C 26.334 8.688

*CAP
0 *26 0.06060462
1 *176:A2 0.0274751
2 *26:2 0.0253997
3 *26:3 0.04203683
4 *26:4 0.04174001
5 *26:5 0.0582324

*RES
0 *26 *26:5 3.086607
1 *26:2 *176:A2 0.8220001
2 *26:3 *26:2 1
3 *26:4 *26:3 1.580357
4 *26:5 *26:4 0.5

*END

*D_NET *27 0.1848128 //LENGTH 2.495 LUMPCC 0 DR

*CONN
*P *27 I *L 0 *C 28.062 7.776
*I *163:A2 I *L 0.557409 *C 25.864 7.776
*N *27:2 *C 25.864 7.594
*N *27:3 *C 25.864 7.764
*N *27:4 *C 25.878 7.776

*CAP
0 *27 0.07903438
1 *163:A2 0.001
2 *27:2 0.01714667
3 *27:3 0.01096955
4 *27:4 0.07666217

*RES
0 *27 *27:4 3.900893
1 *27:3 *163:A2 1
2 *27:3 *27:2 0.2825
3 *27:4 *27:3 0.5

*END

*D_NET *28 0.3586601 //LENGTH 4.212 LUMPCC 0 DR

*CONN
*P *28 I *L 0 *C 28.062 6.560
*I *150:A2 I *L 0.557409 *C 24.374 6.281
*N *28:2 *C 24.937 6.256
*N *28:3 *C 24.952 6.270
*N *28:4 *C 24.952 6.546
*N *28:5 *C 24.966 6.560

*CAP
0 *28 0.1186667
1 *150:A2 0.04688116
2 *28:2 0.04480577
3 *28:3 0.01615443
4 *28:4 0.01585761
5 *28:5 0.1162945

*RES
0 *28 *28:5 5.529465
1 *28:2 *150:A2 1.126
2 *28:3 *28:2 1
3 *28:4 *28:3 0.4946429
4 *28:5 *28:4 0.5

*END

*D_NET *29 0.1867458 //LENGTH 2.647 LUMPCC 0 DR

*CONN
*P *29 I *L 0 *C 28.062 4.432
*I *137:A2 I *L 0.557409 *C 25.712 4.432
*N *29:2 *C 25.712 4.250
*N *29:3 *C 25.712 4.420
*N *29:4 *C 25.726 4.432

*CAP
0 *29 0.08039311
1 *137:A2 0.001
2 *29:2 0.01675447
3 *29:3 0.01057735
4 *29:4 0.07802089

*RES
0 *29 *29:4 4.172321
1 *29:3 *137:A2 1
2 *29:3 *29:2 0.2825
3 *29:4 *29:3 0.5

*END

*D_NET *30 0.2552662 //LENGTH 3.517 LUMPCC 0 DR

*CONN
*P *30 I *L 0 *C 25.256 0.258
*I *124:A2 I *L 0.557409 *C 25.712 2.912
*N *30:2 *C 25.712 2.730
*N *30:3 *C 25.712 2.900
*N *30:4 *C 25.699 2.912
*N *30:5 *C 25.270 2.912
*N *30:6 *C 25.256 2.899

*CAP
0 *30 0.1025126
1 *124:A2 0.001
2 *30:2 0.01287414
3 *30:3 0.006697024
4 *30:4 0.01602111
5 *30:5 0.01602111
6 *30:6 0.1001403

*RES
0 *30 *30:6 4.715178
1 *30:3 *124:A2 1
2 *30:3 *30:2 0.2825
3 *30:4 *30:3 0.5
4 *30:6 *30:5 0.5
5 *30:5 *30:4 0.7660715

*END

*D_NET *31 0.5442073 //LENGTH 6.346 LUMPCC 0 DR

*CONN
*P *31 I *L 0 *C 28.062 7.168
*I *112:A2 I *L 0.557409 *C 25.864 11.120
*N *31:2 *C 25.865 11.120
*N *31:3 *C 26.016 11.120
*N *31:4 *C 26.016 7.182
*N *31:5 *C 26.030 7.168

*CAP
0 *31 0.07771732
1 *112:A2 0.001
2 *31:2 0.004246674
3 *31:3 0.198161
4 *31:4 0.1877372
5 *31:5 0.0753451

*RES
0 *31 *31:5 3.629465
1 *31:2 *112:A2 1
2 *31:4 *31:3 7.033036
3 *31:5 *31:4 0.5
4 *31:3 *31:2 0.2696429

*END

*D_NET *32 0.2718091 //LENGTH 3.579 LUMPCC 0 DR

*CONN
*P *32 I *L 0 *C 28.062 5.040
*I *100:A2 I *L 0.557409 *C 25.864 6.256
*N *32:2 *C 25.864 6.243
*N *32:3 *C 25.864 5.054
*N *32:4 *C 25.878 5.040

*CAP
0 *32 0.0782767
1 *100:A2 0.001
2 *32:2 0.05759764
3 *32:3 0.05903032
4 *32:4 0.07590449

*RES
0 *32 *32:4 3.900893
1 *32:2 *100:A2 1
2 *32:3 *32:2 2.123214
3 *32:4 *32:3 0.5

*END

*D_NET *33 0.2304447 //LENGTH 3.385 LUMPCC 0 DR

*CONN
*P *33 I *L 0 *C 25.104 15.446
*I *192:A2 I *L 0.557409 *C 25.712 12.944
*N *33:2 *C 25.712 12.958
*N *33:3 *C 25.712 14.755
*N *33:4 *C 25.699 14.768
*N *33:5 *C 25.117 14.768
*N *33:6 *C 25.104 14.782

*CAP
0 *33 0.02786101
1 *192:A2 0.001
2 *33:2 0.06713664
3 *33:3 0.06856932
4 *33:4 0.02019445
5 *33:5 0.02019445
6 *33:6 0.02548879

*RES
0 *33 *33:6 1.186607
1 *33:2 *192:A2 1
2 *33:3 *33:2 3.208929
3 *33:4 *33:3 0.5
4 *33:6 *33:5 0.5
5 *33:5 *33:4 1.0375

*END

*D_NET *34 0.2670892 //LENGTH 3.069 LUMPCC 0 DR

*CONN
*P *34 I *L 0 *C 24.192 15.446
*I *179:A2 I *L 0.557409 *C 23.766 12.969
*N *34:2 *C 24.025 12.944
*N *34:3 *C 24.041 12.944
*N *34:4 *C 24.192 12.944

*CAP
0 *34 0.103653
1 *179:A2 0.02411746
2 *34:2 0.02204207
3 *34:3 0.005774163
4 *34:4 0.1115026

*RES
0 *34 *34:4 4.467857
1 *34:2 *179:A2 0.5180001
2 *34:3 *34:2 1
3 *34:4 *34:3 0.2696429

*END

*D_NET *35 0.247189 //LENGTH 3.116 LUMPCC 0 DR

*CONN
*P *35 I *L 0 *C 22.064 15.446
*I *166:A2 I *L 0.557409 *C 21.912 12.972
*N *35:2 *C 21.882 13.552
*N *35:3 *C 22.052 12.944
*N *35:4 *C 22.064 12.958
*N *35:5 *C 22.064 13.539
*N *35:6 *C 22.052 13.552
*N *35:7 *C 22.064 13.566

*CAP
0 *35 0.06489754
1 *166:A2 0.01648595
2 *35:2 0.01186637
3 *35:3 0.01441056
4 *35:4 0.0350885
5 *35:5 0.03479168
6 *35:6 0.00712248
7 *35:7 0.06252587

*RES
0 *35 *35:7 3.358036
1 *35:3 *166:A2 0.2325
2 *35:4 *35:3 1
3 *35:5 *35:4 1.0375
4 *35:6 *35:5 0.5
5 *35:6 *35:2 0.2825
6 *35:7 *35:6 0.5

*END

*D_NET *36 0.3757529 //LENGTH 4.601 LUMPCC 0 DR

*CONN
*P *36 I *L 0 *C 21.760 15.446
*I *153:A2 I *L 0.557409 *C 19.936 12.944
*N *36:2 *C 19.936 12.958
*N *36:3 *C 19.936 13.235
*N *36:4 *C 19.950 13.248
*N *36:5 *C 21.747 13.248
*N *36:6 *C 21.760 13.261

*CAP
0 *36 0.09172425
1 *153:A2 0.001
2 *36:2 0.0139555
3 *36:3 0.01538818
4 *36:4 0.08216646
5 *36:5 0.08216646
6 *36:6 0.08935203

*RES
0 *36 *36:6 3.900893
1 *36:2 *153:A2 1
2 *36:3 *36:2 0.4946429
3 *36:4 *36:3 0.5
4 *36:6 *36:5 0.5
5 *36:5 *36:4 3.208929

*END

*D_NET *37 0.6711577 //LENGTH 7.195 LUMPCC 0 DR

*CONN
*P *37 I *L 0 *C 19.784 15.425
*I *140:A2 I *L 0.557409 *C 13.886 16.313
*N *37:2 *C 14.905 16.288
*N *37:3 *C 14.920 16.274
*N *37:4 *C 14.920 15.389
*N *37:5 *C 14.935 15.376
*N *37:6 *C 19.769 15.376
*N *37:7 *C 19.784 15.376

*CAP
0 *37 0.005886811
1 *140:A2 0.05905255
2 *37:2 0.05697715
3 *37:3 0.04516833
4 *37:4 0.04516833
5 *37:5 0.2275465
6 *37:6 0.2275465
7 *37:7 0.003811413

*RES
0 *37 *37:7 0.09166668
1 *37:2 *140:A2 2.038
2 *37:3 *37:2 1
3 *37:5 *37:4 1
4 *37:4 *37:3 1.580357
5 *37:6 *37:5 9.668
6 *37:7 *37:6 1

*END

*D_NET *38 0.2682712 //LENGTH 3.190 LUMPCC 0 DR

*CONN
*P *38 I *L 0 *C 18.264 15.446
*I *127:A2 I *L 0.557409 *C 17.686 12.969
*N *38:2 *C 18.249 12.944
*N *38:3 *C 18.264 12.958

*CAP
0 *38 0.101909
1 *127:A2 0.03430199
2 *38:2 0.03222659
3 *38:3 0.09983359

*RES
0 *38 *38:3 4.443751
1 *38:2 *127:A2 1.126
2 *38:3 *38:2 1

*END

*D_NET *39 1.013367 //LENGTH 12.347 LUMPCC 0 DR

*CONN
*P *39 I *L 0 *C 17.656 15.446
*I *115:A2 I *L 0.557409 *C 9.934 16.313
*N *39:2 *C 17.808 13.978
*N *39:3 *C 10.345 16.288
*N *39:4 *C 10.360 16.274
*N *39:5 *C 10.360 15.694
*N *39:6 *C 10.373 15.680
*N *39:7 *C 11.715 15.680
*N *39:8 *C 11.728 15.667
*N *39:9 *C 11.728 14.174
*N *39:10 *C 11.742 14.160
*N *39:11 *C 17.794 14.160
*N *39:12 *C 17.808 14.148
*N *39:13 *C 17.796 14.160
*N *39:14 *C 17.656 14.160
*N *39:15 *C 17.656 14.174

*CAP
0 *39 0.06046619
1 *115:A2 0.03989539
2 *39:2 0.01046298
3 *39:3 0.03781999
4 *39:4 0.03360989
5 *39:5 0.03331307
6 *39:6 0.06634798
7 *39:7 0.06634852
8 *39:8 0.06357622
9 *39:9 0.06357674
10 *39:10 0.2281308
11 *39:11 0.2281308
12 *39:12 0.00572016
13 *39:13 0.008937546
14 *39:14 0.008937
15 *39:15 0.05809397

*RES
0 *39 *39:15 2.272322
1 *39:3 *115:A2 0.8220001
2 *39:4 *39:3 1
3 *39:5 *39:4 1.0375
4 *39:6 *39:5 0.5
5 *39:7 *39:6 2.394643
6 *39:8 *39:7 0.5
7 *39:9 *39:8 2.666071
8 *39:10 *39:9 0.5
9 *39:12 *39:11 0.5
10 *39:12 *39:2 0.2825
11 *39:11 *39:10 10.80893
12 *39:13 *39:12 0.5
13 *39:15 *39:14 0.5
14 *39:14 *39:13 0.2325

*END

*D_NET *40 0.6553531 //LENGTH 7.970 LUMPCC 0 DR

*CONN
*P *40 I *L 0 *C 17.352 15.446
*I *103:A2 I *L 0.557409 *C 11.302 16.313
*N *40:2 *C 11.865 16.288
*N *40:3 *C 11.880 16.274
*N *40:4 *C 11.880 15.086
*N *40:5 *C 11.894 15.072
*N *40:6 *C 17.338 15.072
*N *40:7 *C 17.352 15.086

*CAP
0 *40 0.02324474
1 *103:A2 0.03202073
2 *40:2 0.02994533
3 *40:3 0.05959995
4 *40:4 0.05930313
5 *40:5 0.2151834
6 *40:6 0.2151834
7 *40:7 0.02087252

*RES
0 *40 *40:7 0.64375
1 *40:2 *103:A2 1.126
2 *40:3 *40:2 1
3 *40:4 *40:3 2.123214
4 *40:5 *40:4 0.5
5 *40:7 *40:6 0.5
6 *40:6 *40:5 9.723215

*END

*D_NET *41 0.4596178 //LENGTH 5.526 LUMPCC 0 DR

*CONN
*P *41 I *L 0 *C 15.902 22.672
*I *194:A2 I *L 0.557409 *C 12.336 21.180
*N *41:2 *C 12.476 21.152
*N *41:3 *C 12.488 21.166
*N *41:4 *C 12.488 21.747
*N *41:5 *C 12.502 21.760
*N *41:6 *C 13.539 21.760
*N *41:7 *C 13.552 21.774
*N *41:8 *C 13.552 22.659
*N *41:9 *C 13.566 22.672

*CAP
0 *41 0.0837745
1 *194:A2 0.01635106
2 *41:2 0.01427566
3 *41:3 0.03477944
4 *41:4 0.03448262
5 *41:5 0.04836551
6 *41:6 0.04836551
7 *41:7 0.04891061
8 *41:8 0.04891061
9 *41:9 0.08140229

*RES
0 *41 *41:9 4.172322
1 *41:2 *194:A2 0.2325
2 *41:3 *41:2 1
3 *41:4 *41:3 1.0375
4 *41:5 *41:4 0.5
5 *41:7 *41:6 0.5
6 *41:6 *41:5 1.851786
7 *41:8 *41:7 1.580357
8 *41:9 *41:8 0.5

*END

*D_NET *42 0.2543551 //LENGTH 3.148 LUMPCC 0 DR

*CONN
*P *42 I *L 0 *C 15.902 22.064
*I *181:A2 I *L 0.557409 *C 13.886 21.177
*N *42:2 *C 14.145 21.152
*N *42:3 *C 14.160 21.166
*N *42:4 *C 14.160 22.050
*N *42:5 *C 14.174 22.064

*CAP
0 *42 0.06644143
1 *181:A2 0.02250912
2 *42:2 0.02043372
3 *42:3 0.0405992
4 *42:4 0.04030238
5 *42:5 0.06406922

*RES
0 *42 *42:5 3.086607
1 *42:2 *181:A2 0.5180001
2 *42:3 *42:2 1
3 *42:4 *42:3 1.580357
4 *42:5 *42:4 0.5

*END

*D_NET *43 0.6408641 //LENGTH 6.644 LUMPCC 0 DR

*CONN
*P *43 I *L 0 *C 15.902 21.152
*I *168:A2 I *L 0.557409 *C 10.998 19.657
*N *43:2 *C 11.561 19.632
*N *43:3 *C 11.576 19.646
*N *43:4 *C 11.576 21.139
*N *43:5 *C 11.590 21.152

*CAP
0 *43 0.1749066
1 *168:A2 0.04563735
2 *43:2 0.04356195
3 *43:3 0.1022603
4 *43:4 0.1019635
5 *43:5 0.1725344

*RES
0 *43 *43:5 7.700893
1 *43:2 *168:A2 1.126
2 *43:3 *43:2 1
3 *43:4 *43:3 2.666071
4 *43:5 *43:4 0.5

*END

*D_NET *44 0.1782435 //LENGTH 2.343 LUMPCC 0 DR

*CONN
*P *44 I *L 0 *C 15.902 17.808
*I *155:A2 I *L 0.557409 *C 13.856 17.808
*N *44:2 *C 13.856 17.626
*N *44:3 *C 13.856 17.796
*N *44:4 *C 13.870 17.808

*CAP
0 *44 0.07821667
1 *155:A2 0.001
2 *44:2 0.01467974
3 *44:3 0.008502625
4 *44:4 0.07584446

*RES
0 *44 *44:4 3.629464
1 *44:3 *155:A2 1
2 *44:3 *44:2 0.2825
3 *44:4 *44:3 0.5

*END

*D_NET *45 0.7408485 //LENGTH 7.339 LUMPCC 0 DR

*CONN
*P *45 I *L 0 *C 15.902 20.544
*I *142:A2 I *L 0.557409 *C 11.880 17.808
*N *45:2 *C 11.880 17.822
*N *45:3 *C 11.880 18.416
*N *45:4 *C 11.728 18.416
*N *45:5 *C 11.728 20.530
*N *45:6 *C 11.742 20.544

*CAP
0 *45 0.1855742
1 *142:A2 0.001
2 *45:2 0.03888665
3 *45:3 0.05162627
4 *45:4 0.1459332
5 *45:5 0.1346262
6 *45:6 0.183202

*RES
0 *45 *45:6 7.429465
1 *45:2 *142:A2 1
2 *45:5 *45:4 3.775893
3 *45:6 *45:5 0.5
4 *45:4 *45:3 0.2714286
5 *45:3 *45:2 1.061607

*END

*D_NET *46 0.519883 //LENGTH 5.513 LUMPCC 0 DR

*CONN
*P *46 I *L 0 *C 17.048 15.446
*I *129:A2 I *L 0.557409 *C 14.312 12.944
*N *46:2 *C 14.312 12.958
*N *46:3 *C 14.312 13.843
*N *46:4 *C 14.325 13.856
*N *46:5 *C 17.035 13.856
*N *46:6 *C 17.048 13.870

*CAP
0 *46 0.07921395
1 *129:A2 0.001
2 *46:2 0.05922539
3 *46:3 0.06065807
4 *46:4 0.1214719
5 *46:5 0.1214719
6 *46:6 0.07684173

*RES
0 *46 *46:6 2.815179
1 *46:2 *129:A2 1
2 *46:3 *46:2 1.580357
3 *46:4 *46:3 0.5
4 *46:6 *46:5 0.5
5 *46:5 *46:4 4.837501

*END

*D_NET *47 0.352044 //LENGTH 4.229 LUMPCC 0 DR

*CONN
*P *47 I *L 0 *C 6.560 27.150
*I *117:A2 I *L 0.557409 *C 6.560 22.976
*N *47:2 *C 6.560 22.989

*CAP
0 *47 0.1774244
1 *117:A2 0.001
2 *47:2 0.1736195

*RES
0 *47 *47:2 7.429465
1 *47:2 *117:A2 1

*END

*D_NET *48 0.6321858 //LENGTH 6.729 LUMPCC 0 DR

*CONN
*P *48 I *L 0 *C 8.232 27.150
*I *105:A2 I *L 0.557409 *C 7.776 21.152
*N *48:2 *C 7.776 21.166
*N *48:3 *C 7.776 21.747